<edges>
  <!-- inbound to J0 -->
  <edge id="N_in" from="N" to="J0" numLanes="2" speed="13.9"/>
  <edge id="S_in" from="S" to="J0" numLanes="2" speed="13.9"/>
  <edge id="E_in" from="E" to="J0" numLanes="2" speed="13.9"/>
  <edge id="W_in" from="W" to="J0" numLanes="2" speed="13.9"/>
  <!-- outbound from J0 -->
  <edge id="N_out" from="J0" to="N" numLanes="2" speed="13.9"/>
  <edge id="S_out" from="J0" to="S" numLanes="2" speed="13.9"/>
  <edge id="E_out" from="J0" to="E" numLanes="2" speed="13.9"/>
  <edge id="W_out" from="J0" to="W" numLanes="2" speed="13.9"/>
</edges>
