<configuration>
    <input>
        <net-file value="cross.net.xml"/>
        <route-files value="dynamic_flows.rou.xml"/>
        <additional-files value="detectors.add.xml"/>
    </input>

    <time>
        <begin value="0"/>
        <end value="900"/>
        <step-length value="1.0"/>
    </time>

    <report>
        <verbose value="true"/>
        <no-warnings value="true"/>
    </report>
</configuration>
